# File generated by Flopy version 3.8.2 on 12/17/2024 at 16:23:40.
BEGIN options
END options

BEGIN timing
  TDIS6  sagehen.tdis
END timing

BEGIN models
  gwf6  sagehen.nam  sagehen
END models

BEGIN exchanges
END exchanges

BEGIN solutiongroup  1
  ims6  sagehen.ims  sagehen
END solutiongroup  1

