BEGIN MODFLOW_GRID basegrid
	ROTATION_ANGLE = 0
	X_OFFSET = 2345678
	Y_OFFSET = 1234567
	LENGTH_UNIT = undefined
	NLAY = 1
	NROW = 20
	NCOL = 15
	DELR =  CONSTANT 250.0
	DELC =  CONSTANT 150.0
	TOP =  OPEN/CLOSE top.dat
	BOTTOM LAYER 1 =  OPEN/CLOSE bot1.dat
END MODFLOW_GRID

BEGIN QUADTREE quadtreegrid
	MODFLOW_GRID = basegrid
	STRUCTURE_File  = OPEN/CLOSE quadtreegrid.tsf
	TOP LAYER 1 = OPEN/CLOSE quadtreegrid.top1.dat
	BOTTOM LAYER 1 = OPEN/CLOSE quadtreegrid.bot1.dat
END QUADTREE
